A71EV2A-x1255_B_201_1_A71EV2A-x0911+A+147+1__LIG
     RDKit          3D

 12 12  0  0  0  0  0  0  0  0999 V2000
    9.7310    9.4020   23.5360 Br  0  0  0  0  0  0  0  0  0  0  0  0
    8.5500   10.4250   24.5940 C   0  0  0  0  0  0  0  0  0  0  0  0
    8.6660   11.7750   24.6250 C   0  0  0  0  0  0  0  0  0  0  0  0
    7.7800   12.5680   25.4310 C   0  0  0  0  0  0  0  0  0  0  0  0
    7.8120   13.7960   25.5120 O   0  0  0  0  0  0  0  0  0  0  0  0
    7.5560    9.7420   25.3380 C   0  0  0  0  0  0  0  0  0  0  0  0
    6.7280   10.4870   26.0920 C   0  0  0  0  0  0  0  0  0  0  0  0
    6.8230   11.8520   26.1570 N   0  0  0  0  0  0  0  0  0  0  0  0
    5.9180   12.5980   27.0490 C   0  0  0  0  0  0  0  0  0  0  0  0
    6.5690   12.9320   28.3730 C   0  0  0  0  0  0  0  0  0  0  0  0
    5.9060   12.2460   29.4260 O   0  0  0  0  0  0  0  0  0  0  0  0
    6.0010   10.8240   29.3870 C   0  0  0  0  0  0  0  0  0  0  0  0
  5  4  2  0
  4  8  1  0
  9  8  1  0
 10  9  1  0
 11 10  1  0
 12 11  1  0
  8  7  1  0
  7  6  2  0
  6  2  1  0
  2  1  1  0
  3  2  2  0
  4  3  1  0
M  END
$$$$
