A71EV2A-x0863_A_147_1_A71EV2A-x3181+A+202+1__LIG
     RDKit          3D

 14 14  0  0  0  0  0  0  0  0999 V2000
   27.7580   20.3250   19.0390 O   0  0  0  0  0  0  0  0  0  0  0  0
   28.1430   21.0370   19.9400 C   0  0  0  0  0  0  0  0  0  0  0  0
   27.3410   21.3460   20.9790 N   0  0  0  0  0  0  0  0  0  0  0  0
   27.6460   22.1370   22.1730 C   0  0  0  0  0  0  0  0  0  0  0  0
   26.6580   21.9320   23.2970 C   0  0  0  0  0  0  0  0  0  0  0  0
   25.9410   20.9030   20.8390 C   0  0  0  0  0  0  0  0  0  0  0  0
   25.7170   19.5050   21.3010 C   0  0  0  0  0  0  0  0  0  0  0  0
   29.5310   21.5930   19.8540 C   0  0  0  0  0  0  0  0  0  0  0  0
   29.8470   22.9310   20.0940 C   0  0  0  0  0  0  0  0  0  0  0  0
   31.1050   23.4270   19.7940 C   0  0  0  0  0  0  0  0  0  0  0  0
   32.0810   22.6070   19.2250 C   0  0  0  0  0  0  0  0  0  0  0  0
   33.3400   23.1050   18.9240 N   0  0  0  0  0  0  0  0  0  0  0  0
   31.7600   21.2680   18.9750 C   0  0  0  0  0  0  0  0  0  0  0  0
   30.5110   20.7680   19.3010 C   0  0  0  0  0  0  0  0  0  0  0  0
  7  6  1  0
  6  3  1  0
  4  3  1  0
  5  4  1  0
  3  2  1  0
  2  1  2  0
  8  2  1  0
  8 14  2  0
 14 13  1  0
 13 11  2  0
 12 11  1  0
 11 10  1  0
 10  9  2  0
  9  8  1  0
M  END
$$$$
