A71EV2A-x0488_A_147_1_A71EV2A-x0488+A+147+1__LIG
     RDKit          3D

 10 10  0  0  0  0  0  0  0  0999 V2000
   14.7980   -7.1190   32.8020 O   0  0  0  0  0  0  0  0  0  0  0  0
   14.1270   -6.2820   33.4000 C   0  0  0  0  0  0  0  0  0  0  0  0
   12.7760   -5.9200   33.1150 C   0  0  0  0  0  0  0  0  0  0  0  0
   12.1450   -4.9620   33.8310 C   0  0  0  0  0  0  0  0  0  0  0  0
   12.7200   -4.2780   34.8710 N   0  0  0  0  0  0  0  0  0  0  0  0
   13.9420   -4.6280   35.1290 C   0  0  0  0  0  0  0  0  0  0  0  0
   14.6740   -5.5670   34.4540 N   0  0  0  0  0  0  0  0  0  0  0  0
   16.0910   -5.7920   34.7920 C   0  0  0  0  0  0  0  0  0  0  0  0
   16.3540   -7.1890   35.3190 C   0  0  0  0  0  0  0  0  0  0  0  0
   17.5000   -7.7510   34.7030 O   0  0  0  0  0  0  0  0  0  0  0  0
 10  9  1  0
  9  8  1  0
  8  7  1  0
  7  6  1  0
  6  5  2  0
  5  4  1  0
  4  3  2  0
  3  2  1  0
  7  2  1  0
  2  1  2  0
M  END
$$$$
