A71EV2A-x0719_A_201_1_A71EV2A-x3181+A+202+1__LIG
     RDKit          3D

 13 13  0  0  0  0  0  0  0  0999 V2000
   30.8410   21.2070   18.9500 O   0  0  0  0  0  0  0  0  0  0  0  0
   30.7420   22.3520   19.8030 S   0  0  0  0  0  0  0  0  0  0  0  0
   31.1650   23.6310   19.3300 O   0  0  0  0  0  0  0  0  0  0  0  0
   31.5440   22.0290   21.1570 N   0  0  0  0  0  0  0  0  0  0  0  0
   29.0600   22.4980   20.3890 C   0  0  0  0  0  0  0  0  0  0  0  0
   28.0690   21.3910   19.9860 C   0  0  1  0  0  0  0  0  0  0  0  0
   28.8230   20.1060   19.7090 C   0  0  0  0  0  0  0  0  0  0  0  0
   26.9100   21.1550   20.9510 C   0  0  0  0  0  0  0  0  0  0  0  0
   26.5150   22.1300   21.8550 C   0  0  0  0  0  0  0  0  0  0  0  0
   25.3880   21.9510   22.6440 C   0  0  0  0  0  0  0  0  0  0  0  0
   24.6640   20.7890   22.5670 C   0  0  0  0  0  0  0  0  0  0  0  0
   25.0580   19.8000   21.7010 C   0  0  0  0  0  0  0  0  0  0  0  0
   26.1720   19.9790   20.8970 C   0  0  0  0  0  0  0  0  0  0  0  0
  6  7  1  1
  6  5  1  0
  5  2  1  0
  3  2  2  0
  2  1  2  0
  4  2  1  0
  8  6  1  0
  8 13  2  0
 13 12  1  0
 12 11  2  0
 11 10  1  0
 10  9  2  0
  9  8  1  0
M  END
$$$$
