A71EV2A-x0229_A_147_1_A71EV2A-x0525+A+246+1__LIG
     RDKit          3D

 13 13  0  0  0  0  0  0  0  0999 V2000
    9.0730   21.6850   28.0410 O   0  0  0  0  0  0  0  0  0  0  0  0
    8.5410   22.4720   26.9850 S   0  0  0  0  0  0  0  0  0  0  0  0
    7.1650   22.3050   26.6700 O   0  0  0  0  0  0  0  0  0  0  0  0
    8.8760   24.1260   27.3890 C   0  0  0  0  0  0  0  0  0  0  0  0
    9.3820   22.0150   25.6550 N   0  0  0  0  0  0  0  0  0  0  0  0
   10.7460   22.2620   25.3920 C   0  0  0  0  0  0  0  0  0  0  0  0
   11.2250   23.3640   24.6740 C   0  0  0  0  0  0  0  0  0  0  0  0
   12.5810   23.5050   24.4590 C   0  0  0  0  0  0  0  0  0  0  0  0
   13.4860   22.6020   24.9600 C   0  0  0  0  0  0  0  0  0  0  0  0
   14.9660   22.7870   24.8390 C   0  0  0  0  0  0  0  0  0  0  0  0
   15.5610   23.3990   26.0350 N   0  0  0  0  0  0  0  0  0  0  0  0
   12.9980   21.4940   25.6730 C   0  0  0  0  0  0  0  0  0  0  0  0
   11.6430   21.3220   25.8660 C   0  0  0  0  0  0  0  0  0  0  0  0
  4  2  1  0
  3  2  2  0
  2  1  2  0
  5  2  1  0
  6  5  1  0
  6 13  2  0
 13 12  1  0
 12  9  2  0
 10  9  1  0
 11 10  1  0
  9  8  1  0
  8  7  2  0
  7  6  1  0
M  END
$$$$
