A71EV2A-x0351_A_201_1_A71EV2A-x0432+A+147+1__LIG
     RDKit          3D

 16 17  0  0  0  0  0  0  0  0999 V2000
   -2.4670   -6.5170   17.2920 O   0  0  0  0  0  0  0  0  0  0  0  0
   -2.3090   -6.4310   18.7120 S   0  0  0  0  0  0  0  0  0  0  0  0
   -2.6230   -5.2040   19.3800 O   0  0  0  0  0  0  0  0  0  0  0  0
   -3.2830   -7.7160   19.4580 C   0  0  0  0  0  0  0  0  0  0  0  0
   -3.2210   -9.0080   18.6760 C   0  0  0  0  0  0  0  0  0  0  0  0
   -0.7280   -6.7600   19.0310 N   0  0  0  0  0  0  0  0  0  0  0  0
    0.3550   -5.9120   18.5070 C   0  0  0  0  0  0  0  0  0  0  0  0
    0.8670   -6.3330   17.1490 C   0  0  0  0  0  0  0  0  0  0  0  0
    1.2370   -7.6550   16.9150 C   0  0  0  0  0  0  0  0  0  0  0  0
    1.7430   -7.9860   15.6770 C   0  0  0  0  0  0  0  0  0  0  0  0
    2.3140   -9.1700   15.2750 O   0  0  0  0  0  0  0  0  0  0  0  0
    2.3970   -9.0580   13.8560 C   0  0  0  0  0  0  0  0  0  0  0  0
    2.2740   -7.6710   13.5130 O   0  0  0  0  0  0  0  0  0  0  0  0
    1.8370   -7.0610   14.6660 C   0  0  0  0  0  0  0  0  0  0  0  0
    1.4790   -5.7460   14.8660 C   0  0  0  0  0  0  0  0  0  0  0  0
    1.0010   -5.3960   16.1190 C   0  0  0  0  0  0  0  0  0  0  0  0
  5  4  1  0
  4  2  1  0
  3  2  2  0
  2  1  2  0
  6  2  1  0
  7  6  1  0
  8  7  1  0
  8 16  2  0
 16 15  1  0
 15 14  2  0
 14 13  1  0
 13 12  1  0
 12 11  1  0
 11 10  1  0
 14 10  1  0
 10  9  2  0
  9  8  1  0
M  END
$$$$
