A71EV2A-x0836_A_301_1_A71EV2A-x0911+A+147+1__LIG
     RDKit          3D

 16 17  0  0  0  0  0  0  0  0999 V2000
    5.4350   13.3750   26.9030 N   0  0  0  0  0  0  0  0  0  0  0  0
    5.9190   12.0340   27.2140 C   0  0  2  0  0  0  0  0  0  0  0  0
    6.4980   11.9090   28.6140 C   0  0  0  0  0  0  0  0  0  0  0  0
    7.4600   12.8020   29.0630 C   0  0  0  0  0  0  0  0  0  0  0  0
    8.0280   12.6570   30.3180 C   0  0  0  0  0  0  0  0  0  0  0  0
    7.6440   11.6150   31.1370 C   0  0  0  0  0  0  0  0  0  0  0  0
    6.6880   10.7220   30.7030 C   0  0  0  0  0  0  0  0  0  0  0  0
    6.1170   10.8680   29.4510 C   0  0  0  0  0  0  0  0  0  0  0  0
    6.9290   11.5200   26.2010 C   0  0  0  0  0  0  0  0  0  0  0  0
    6.9880   10.1660   25.9120 C   0  0  0  0  0  0  0  0  0  0  0  0
    7.8720    9.6730   24.9710 C   0  0  0  0  0  0  0  0  0  0  0  0
    7.7940   12.3740   25.5290 C   0  0  0  0  0  0  0  0  0  0  0  0
    8.6900   11.8930   24.5900 C   0  0  0  0  0  0  0  0  0  0  0  0
    8.7300   10.5350   24.3120 C   0  0  0  0  0  0  0  0  0  0  0  0
    9.6390   10.0890   23.3860 O   0  0  0  0  0  0  0  0  0  0  0  0
    9.7970    8.6840   23.2110 C   0  0  0  0  0  0  0  0  0  0  0  0
 16 15  1  0
 15 14  1  0
 14 11  1  0
 11 10  2  0
 10  9  1  0
 12  9  2  0
 13 12  1  0
 14 13  2  0
  9  2  1  0
  2  1  1  6
  3  2  1  0
  3  8  2  0
  8  7  1  0
  7  6  2  0
  6  5  1  0
  5  4  2  0
  4  3  1  0
M  END
$$$$
