A71EV2A-x0305_A_147_1_A71EV2A-x0541+A+147+1__LIG
     RDKit          3D

 13 13  0  0  0  0  0  0  0  0999 V2000
    8.0440   15.0580    2.6070 F   0  0  0  0  0  0  0  0  0  0  0  0
    8.0370   13.7480    2.9340 C   0  0  0  0  0  0  0  0  0  0  0  0
    8.4350   12.7550    1.9730 C   0  0  0  0  0  0  0  0  0  0  0  0
    9.3290   13.0550    0.8090 C   0  0  0  0  0  0  0  0  0  0  0  0
    8.1380   11.4680    2.2960 C   0  0  0  0  0  0  0  0  0  0  0  0
    7.5320   11.1680    3.4790 C   0  0  0  0  0  0  0  0  0  0  0  0
    7.2020   12.1520    4.4430 C   0  0  0  0  0  0  0  0  0  0  0  0
    7.4600   13.4420    4.1440 C   0  0  0  0  0  0  0  0  0  0  0  0
    7.0170   14.6990    5.2380 S   0  0  0  0  0  0  0  0  0  0  0  0
    8.0700   15.6190    5.1610 O   0  0  0  0  0  0  0  0  0  0  0  0
    6.5090   14.3440    6.5030 O   0  0  0  0  0  0  0  0  0  0  0  0
    5.7390   15.3910    4.5060 N   0  0  0  0  0  0  0  0  0  0  0  0
    5.5750   16.8360    4.4610 C   0  0  0  0  0  0  0  0  0  0  0  0
 13 12  1  0
 12  9  1  0
 10  9  2  0
 11  9  2  0
  9  8  1  0
  8  7  2  0
  7  6  1  0
  6  5  2  0
  5  3  1  0
  4  3  1  0
  3  2  2  0
  8  2  1  0
  2  1  1  0
M  END
$$$$
