A71EV2A-x0194_A_147_1_A71EV2A-x3977+A+202+1__LIG
     RDKit          3D

 15 16  0  0  0  0  0  0  0  0999 V2000
   17.6470   -5.2070   23.0850 F   0  0  0  0  0  0  0  0  0  0  0  0
   18.3460   -4.1240   23.4880 C   0  0  0  0  0  0  0  0  0  0  0  0
   18.9760   -4.1800   24.7160 C   0  0  0  0  0  0  0  0  0  0  0  0
   19.6930   -3.0500   25.1080 C   0  0  0  0  0  0  0  0  0  0  0  0
   19.7720   -1.9360   24.2870 C   0  0  0  0  0  0  0  0  0  0  0  0
   19.1360   -1.9280   23.0670 C   0  0  0  0  0  0  0  0  0  0  0  0
   18.4110   -3.0340   22.6530 C   0  0  0  0  0  0  0  0  0  0  0  0
   18.9490   -5.4290   25.5620 C   0  0  0  0  0  0  0  0  0  0  0  0
   17.8870   -5.4410   26.5750 N   0  0  0  0  0  0  0  0  0  0  0  0
   18.3790   -5.8800   27.8930 C   0  0  0  0  0  0  0  0  0  0  0  0
   19.1650   -4.7430   28.5210 C   0  0  0  0  0  0  0  0  0  0  0  0
   18.4350   -4.1980   29.7210 C   0  0  0  0  0  0  0  0  0  0  0  0
   18.3030   -5.1860   30.7510 O   0  0  0  0  0  0  0  0  0  0  0  0
   17.9760   -6.4890   30.2280 C   0  0  0  0  0  0  0  0  0  0  0  0
   17.3390   -6.4020   28.8630 C   0  0  0  0  0  0  0  0  0  0  0  0
  2  1  1  0
  2  7  2  0
  7  6  1  0
  6  5  2  0
  5  4  1  0
  4  3  2  0
  3  2  1  0
  8  3  1  0
  9  8  1  0
 10  9  1  0
 10 15  1  0
 15 14  1  0
 14 13  1  0
 13 12  1  0
 12 11  1  0
 11 10  1  0
M  END
$$$$
