A71EV2A-x0229_A_201_1_A71EV2A-x0541+A+147+1__LIG
     RDKit          3D

 13 13  0  0  0  0  0  0  0  0999 V2000
    6.4590   14.2200    6.5650 O   0  0  0  0  0  0  0  0  0  0  0  0
    6.6700   14.1140    5.1590 S   0  0  0  0  0  0  0  0  0  0  0  0
    7.7250   14.8390    4.5530 O   0  0  0  0  0  0  0  0  0  0  0  0
    5.1710   14.4140    4.2990 C   0  0  0  0  0  0  0  0  0  0  0  0
    7.1170   12.6180    4.7500 N   0  0  0  0  0  0  0  0  0  0  0  0
    7.5750   12.2790    3.4000 C   0  0  0  0  0  0  0  0  0  0  0  0
    7.3200   11.0110    2.9060 C   0  0  0  0  0  0  0  0  0  0  0  0
    7.8240   10.6270    1.6770 C   0  0  0  0  0  0  0  0  0  0  0  0
    8.6000   11.4800    0.9220 C   0  0  0  0  0  0  0  0  0  0  0  0
    9.4810   10.9580   -0.1880 C   0  0  0  0  0  0  0  0  0  0  0  0
    8.7320   10.1440   -1.1590 N   0  0  0  0  0  0  0  0  0  0  0  0
    8.7790   12.7660    1.3650 C   0  0  0  0  0  0  0  0  0  0  0  0
    8.2920   13.1730    2.5840 C   0  0  0  0  0  0  0  0  0  0  0  0
  4  2  1  0
  3  2  2  0
  2  1  2  0
  5  2  1  0
  6  5  1  0
  6 13  2  0
 13 12  1  0
 12  9  2  0
 10  9  1  0
 11 10  1  0
  9  8  1  0
  8  7  2  0
  7  6  1  0
M  END
$$$$
