A71EV2A-x0351_A_302_1_A71EV2A-x3181+A+202+1__LIG
     RDKit          3D

 16 17  0  0  0  0  0  0  0  0999 V2000
   24.8980   18.4910   25.7100 O   0  0  0  0  0  0  0  0  0  0  0  0
   24.6300   17.2940   24.9680 S   0  0  0  0  0  0  0  0  0  0  0  0
   25.5120   16.1710   25.1030 O   0  0  0  0  0  0  0  0  0  0  0  0
   22.9750   16.7730   25.3650 C   0  0  0  0  0  0  0  0  0  0  0  0
   22.3380   15.9770   24.2520 C   0  0  0  0  0  0  0  0  0  0  0  0
   24.6410   17.7100   23.3820 N   0  0  0  0  0  0  0  0  0  0  0  0
   23.8950   18.8770   22.8910 C   0  0  0  0  0  0  0  0  0  0  0  0
   24.7560   19.9220   22.2230 C   0  0  0  0  0  0  0  0  0  0  0  0
   25.7740   19.5640   21.3380 C   0  0  0  0  0  0  0  0  0  0  0  0
   26.4910   20.5630   20.7140 C   0  0  0  0  0  0  0  0  0  0  0  0
   27.4860   20.4510   19.7660 O   0  0  0  0  0  0  0  0  0  0  0  0
   27.6570   21.7720   19.2580 C   0  0  0  0  0  0  0  0  0  0  0  0
   27.0690   22.6680   20.1970 O   0  0  0  0  0  0  0  0  0  0  0  0
   26.2380   21.8830   20.9630 C   0  0  0  0  0  0  0  0  0  0  0  0
   25.2550   22.2670   21.8480 C   0  0  0  0  0  0  0  0  0  0  0  0
   24.5130   21.2740   22.4650 C   0  0  0  0  0  0  0  0  0  0  0  0
  5  4  1  0
  4  2  1  0
  3  2  2  0
  2  1  2  0
  6  2  1  0
  7  6  1  0
  8  7  1  0
  8 16  2  0
 16 15  1  0
 15 14  2  0
 14 13  1  0
 13 12  1  0
 12 11  1  0
 11 10  1  0
 14 10  1  0
 10  9  2  0
  9  8  1  0
M  END
$$$$
