A71EV2A-x1105_A_148_1_A71EV2A-x3977+A+202+1__LIG
     RDKit          3D

 12 13  0  0  0  0  0  0  0  0999 V2000
   18.2240   -3.5600   18.3210 C   0  0  0  0  0  0  0  0  0  0  0  0
   19.2270   -3.0750   19.1320 C   0  0  0  0  0  0  0  0  0  0  0  0
   19.4870   -3.5480   20.3550 N   0  0  0  0  0  0  0  0  0  0  0  0
   18.7260   -4.5630   20.7790 C   0  0  0  0  0  0  0  0  0  0  0  0
   17.7160   -5.1250   20.0270 C   0  0  0  0  0  0  0  0  0  0  0  0
   17.4250   -4.6000   18.7740 C   0  0  0  0  0  0  0  0  0  0  0  0
   16.1920   -5.0000   18.0380 C   0  0  0  0  0  0  0  0  0  0  0  0
   15.2170   -4.0580   17.7190 C   0  0  0  0  0  0  0  0  0  0  0  0
   13.9960   -4.4480   17.1860 C   0  0  0  0  0  0  0  0  0  0  0  0
   15.9170   -6.3410   17.7680 C   0  0  0  0  0  0  0  0  0  0  0  0
   14.6970   -6.7210   17.2260 C   0  0  0  0  0  0  0  0  0  0  0  0
   13.7340   -5.7750   16.9470 C   0  0  0  0  0  0  0  0  0  0  0  0
 12  9  1  0
  9  8  2  0
  8  7  1  0
 10  7  2  0
 11 10  1  0
 12 11  2  0
  7  6  1  0
  6  5  2  0
  5  4  1  0
  4  3  2  0
  3  2  1  0
  2  1  2  0
  6  1  1  0
M  END
$$$$
