A71EV2A-x0486_A_147_1_A71EV2A-x0486+A+147+1__LIG
     RDKit          3D

 15 16  0  0  0  0  0  0  0  0999 V2000
   21.9990   13.3710    0.8570 O   0  0  0  0  0  0  0  0  0  0  0  0
   22.6430   13.4330    1.9050 C   0  0  0  0  0  0  0  0  0  0  0  0
   23.8540   12.8690    2.0480 N   0  0  0  0  0  0  0  0  0  0  0  0
   24.4290   13.0780    3.3320 C   0  0  0  0  0  0  0  0  0  0  0  0
   24.7310   12.0470    1.2120 C   0  0  0  0  0  0  0  0  0  0  0  0
   21.9950   13.9460    3.1830 C   0  0  0  0  0  0  0  0  0  0  0  0
   20.6290   14.3140    2.9600 N   0  0  0  0  0  0  0  0  0  0  0  0
   20.1110   15.4920    2.5410 C   0  0  0  0  0  0  0  0  0  0  0  0
   18.7210   15.3580    2.5860 C   0  0  0  0  0  0  0  0  0  0  0  0
   18.5120   14.0170    2.9950 C   0  0  0  0  0  0  0  0  0  0  0  0
   19.6490   13.4130    3.2500 N   0  0  0  0  0  0  0  0  0  0  0  0
   20.7090   16.6320    2.0800 C   0  0  0  0  0  0  0  0  0  0  0  0
   19.9270   17.6550    1.5940 C   0  0  0  0  0  0  0  0  0  0  0  0
   18.5550   17.5730    1.6680 C   0  0  0  0  0  0  0  0  0  0  0  0
   17.9290   16.4480    2.2470 C   0  0  0  0  0  0  0  0  0  0  0  0
  5  3  1  0
  4  3  1  0
  3  2  1  0
  2  1  2  0
  6  2  1  0
  7  6  1  0
  7 11  1  0
 11 10  2  0
 10  9  1  0
  9 15  2  0
 15 14  1  0
 14 13  2  0
 13 12  1  0
 12  8  2  0
  8  7  1  0
  9  8  1  0
M  END
$$$$
