A71EV2A-x0515_A_201_1_A71EV2A-x0911+A+147+1_ALIG
     RDKit          3D

 11 11  0  0  0  0  0  0  0  0999 V2000
    9.0810   13.7320   24.7780 O   0  0  0  0  0  0  0  0  0  0  0  0
    9.0120   12.5290   24.8190 C   0  0  0  0  0  0  0  0  0  0  0  0
    9.9870   11.7170   24.4220 O   0  0  0  0  0  0  0  0  0  0  0  0
   10.3720   11.8080   23.0290 C   0  0  0  0  0  0  0  0  0  0  0  0
    7.8470   11.7890   25.3700 C   0  0  0  0  0  0  0  0  0  0  0  0
    7.6140   10.4260   25.0710 C   0  0  0  0  0  0  0  0  0  0  0  0
    8.4410    9.6800   24.2450 N   0  0  0  0  0  0  0  0  0  0  0  0
    6.5270    9.8150   25.6610 C   0  0  0  0  0  0  0  0  0  0  0  0
    5.6960   10.4280   26.5050 N   0  0  0  0  0  0  0  0  0  0  0  0
    5.9280   11.7160   26.7740 C   0  0  0  0  0  0  0  0  0  0  0  0
    6.9730   12.4430   26.2350 C   0  0  0  0  0  0  0  0  0  0  0  0
  4  3  1  0
  3  2  1  0
  2  1  2  0
  5  2  1  0
  5 11  2  0
 11 10  1  0
 10  9  2  0
  9  8  1  0
  8  6  2  0
  6  5  1  0
  7  6  1  0
M  END
$$$$
A71EV2A-x0515_A_201_1_A71EV2A-x0911+A+147+1_BLIG
     RDKit          3D

 11 11  0  0  0  0  0  0  0  0999 V2000
   10.1370   11.1540   23.1920 O   0  0  0  0  0  0  0  0  0  0  0  0
    9.2570   10.6670   23.8440 C   0  0  0  0  0  0  0  0  0  0  0  0
    9.0100    9.3640   23.8530 O   0  0  0  0  0  0  0  0  0  0  0  0
    9.8080    8.5750   22.9380 C   0  0  0  0  0  0  0  0  0  0  0  0
    8.3340   11.4530   24.7170 C   0  0  0  0  0  0  0  0  0  0  0  0
    7.3050   10.8380   25.4630 C   0  0  0  0  0  0  0  0  0  0  0  0
    7.1120    9.4770   25.4870 N   0  0  0  0  0  0  0  0  0  0  0  0
    6.4510   11.6660   26.2110 C   0  0  0  0  0  0  0  0  0  0  0  0
    6.5630   13.0000   26.2470 N   0  0  0  0  0  0  0  0  0  0  0  0
    7.5530   13.5560   25.5420 C   0  0  0  0  0  0  0  0  0  0  0  0
    8.4590   12.8410   24.7780 C   0  0  0  0  0  0  0  0  0  0  0  0
  4  3  1  0
  3  2  1  0
  2  1  2  0
  5  2  1  0
  5 11  2  0
 11 10  1  0
 10  9  2  0
  9  8  1  0
  8  6  2  0
  6  5  1  0
  7  6  1  0
M  END
$$$$
