A71EV2A-x0309_A_147_1_A71EV2A-x0486+A+147+1__LIG
     RDKit          3D

 15 17  0  0  0  0  0  0  0  0999 V2000
   24.6680   16.7850    1.7360 C   0  0  0  0  0  0  0  0  0  0  0  0
   23.3230   16.2370    1.8190 N   0  0  0  0  0  0  0  0  0  0  0  0
   22.9290   14.9340    1.8640 C   0  0  0  0  0  0  0  0  0  0  0  0
   21.6130   14.8280    1.8480 N   0  0  0  0  0  0  0  0  0  0  0  0
   21.1500   16.1140    1.8600 C   0  0  0  0  0  0  0  0  0  0  0  0
   22.1780   16.9890    1.8530 C   0  0  0  0  0  0  0  0  0  0  0  0
   23.8240   13.8060    2.0540 C   0  0  0  0  0  0  0  0  0  0  0  0
   25.1790   13.8960    2.0470 N   0  0  0  0  0  0  0  0  0  0  0  0
   25.5410   12.6610    2.0590 C   0  0  0  0  0  0  0  0  0  0  0  0
   24.5110   11.8170    2.1620 O   0  0  0  0  0  0  0  0  0  0  0  0
   23.3570   12.6030    2.1470 N   0  0  0  0  0  0  0  0  0  0  0  0
   26.8570   12.0750    1.7440 C   0  0  0  0  0  0  0  0  0  0  0  0
   26.7380   10.5820    1.4640 C   0  0  0  0  0  0  0  0  0  0  0  0
   28.1000   10.4270    1.9070 C   0  0  0  0  0  0  0  0  0  0  0  0
   27.8130   11.5600    2.8010 C   0  0  0  0  0  0  0  0  0  0  0  0
  2  1  1  0
  2  6  1  0
  6  5  2  0
  5  4  1  0
  4  3  2  0
  3  2  1  0
  7  3  1  0
  7 11  2  0
 11 10  1  0
 10  9  1  0
  9  8  2  0
  8  7  1  0
 12  9  1  0
 12 15  1  0
 15 14  1  0
 14 13  1  0
 13 12  1  0
M  END
$$$$
