A71EV2A-x0875_A_201_1_A71EV2A-x0911+A+147+1__LIG
     RDKit          3D

 14 14  0  0  0  0  0  0  0  0999 V2000
   15.7330   11.2830   24.2190 O   0  0  0  0  0  0  0  0  0  0  0  0
   14.6890   10.7970   24.5110 C   0  0  0  0  0  0  0  0  0  0  0  0
   14.5440    9.7150   25.2270 O   0  0  0  0  0  0  0  0  0  0  0  0
   13.4360   11.5130   24.1140 C   0  0  0  0  0  0  0  0  0  0  0  0
   13.3530   12.7700   24.9610 C   0  0  0  0  0  0  0  0  0  0  0  0
   12.0220   12.8720   25.6460 C   0  0  0  0  0  0  0  0  0  0  0  0
   12.1580   10.6980   24.2330 C   0  0  0  0  0  0  0  0  0  0  0  0
   11.0340   11.6150   23.7820 C   0  0  0  0  0  0  0  0  0  0  0  0
   11.0010   12.8510   24.5900 N   0  0  0  0  0  0  0  0  0  0  0  0
    9.6630   13.7250   24.8690 S   0  0  0  0  0  0  0  0  0  0  0  0
    9.6320   14.7570   23.8780 O   0  0  0  0  0  0  0  0  0  0  0  0
    9.6970   14.0980   26.2470 O   0  0  0  0  0  0  0  0  0  0  0  0
    8.2690   12.6440   24.5630 C   0  0  0  0  0  0  0  0  0  0  0  0
    8.2400   11.4310   25.4260 C   0  0  0  0  0  0  0  0  0  0  0  0
 14 13  1  0
 13 10  1  0
 11 10  2  0
 12 10  2  0
 10  9  1  0
  9  6  1  0
  6  5  1  0
  5  4  1  0
  7  4  1  0
  8  7  1  0
  9  8  1  0
  4  2  1  0
  2  1  2  0
  3  2  1  0
M  END
$$$$
