A71EV2A-x0719_A_301_1_A71EV2A-x0911+A+147+1__LIG
     RDKit          3D

 13 13  0  0  0  0  0  0  0  0999 V2000
    7.2410   13.3110   21.9860 O   0  0  0  0  0  0  0  0  0  0  0  0
    7.2630   14.6970   22.3250 S   0  0  0  0  0  0  0  0  0  0  0  0
    8.4090   15.4940   22.0280 O   0  0  0  0  0  0  0  0  0  0  0  0
    5.9630   15.4080   21.7150 N   0  0  0  0  0  0  0  0  0  0  0  0
    6.8920   14.8260   24.0550 C   0  0  0  0  0  0  0  0  0  0  0  0
    7.9420   14.2430   25.0170 C   0  0  1  0  0  0  0  0  0  0  0  0
    7.4570   14.4430   26.4510 C   0  0  0  0  0  0  0  0  0  0  0  0
    8.3290   12.7940   24.7380 C   0  0  0  0  0  0  0  0  0  0  0  0
    9.4190   12.4930   23.9310 C   0  0  0  0  0  0  0  0  0  0  0  0
    9.7520   11.1760   23.6460 C   0  0  0  0  0  0  0  0  0  0  0  0
    9.0220   10.1430   24.1960 C   0  0  0  0  0  0  0  0  0  0  0  0
    7.9490   10.4300   25.0120 C   0  0  0  0  0  0  0  0  0  0  0  0
    7.5960   11.7420   25.2670 C   0  0  0  0  0  0  0  0  0  0  0  0
  6  7  1  1
  6  5  1  0
  5  2  1  0
  3  2  2  0
  2  1  2  0
  4  2  1  0
  8  6  1  0
  8 13  2  0
 13 12  1  0
 12 11  2  0
 11 10  1  0
 10  9  2  0
  9  8  1  0
M  END
$$$$
