A71EV2A-x0396_A_147_1_A71EV2A-x0396+A+147+1__LIG
     RDKit          3D

  9  9  0  0  0  0  0  0  0  0999 V2000
   30.9940   17.6780    7.8350 N   0  0  0  0  0  0  0  0  0  0  0  0
   29.8970   18.4240    7.6570 C   0  0  0  0  0  0  0  0  0  0  0  0
   29.7420   19.6300    8.1490 N   0  0  0  0  0  0  0  0  0  0  0  0
   28.4870   20.1700    7.8350 N   0  0  0  0  0  0  0  0  0  0  0  0
   28.5150   17.8520    6.7600 S   0  0  0  0  0  0  0  0  0  0  0  0
   27.7510   19.3810    7.1270 C   0  0  0  0  0  0  0  0  0  0  0  0
   26.3810   19.7080    6.6370 C   0  0  0  0  0  0  0  0  0  0  0  0
   26.0330   20.9700    7.1940 O   0  0  0  0  0  0  0  0  0  0  0  0
   25.0960   21.6830    6.3930 C   0  0  0  0  0  0  0  0  0  0  0  0
  9  8  1  0
  8  7  1  0
  7  6  1  0
  6  4  2  0
  4  3  1  0
  3  2  2  0
  2  1  1  0
  5  2  1  0
  6  5  1  0
M  END
$$$$
