A71EV2A-x0875_A_147_1_A71EV2A-x3977+A+202+1__LIG
     RDKit          3D

 14 14  0  0  0  0  0  0  0  0999 V2000
   11.1960  -13.3940    8.3280 O   0  0  0  0  0  0  0  0  0  0  0  0
   11.0760  -12.8050    9.3800 C   0  0  0  0  0  0  0  0  0  0  0  0
   10.3960  -13.2660   10.3960 O   0  0  0  0  0  0  0  0  0  0  0  0
   11.6730  -11.4380    9.6280 C   0  0  0  0  0  0  0  0  0  0  0  0
   10.5860  -10.4710   10.0930 C   0  0  0  0  0  0  0  0  0  0  0  0
   10.5340  -10.4930   11.6130 C   0  0  0  0  0  0  0  0  0  0  0  0
   12.8110  -11.4580   10.6620 C   0  0  0  0  0  0  0  0  0  0  0  0
   12.9420  -10.1070   11.3800 C   0  0  0  0  0  0  0  0  0  0  0  0
   11.7180   -9.7920   12.1440 N   0  0  0  0  0  0  0  0  0  0  0  0
   11.5810   -8.3200   12.8490 S   0  0  0  0  0  0  0  0  0  0  0  0
   12.1510   -8.4320   14.1550 O   0  0  0  0  0  0  0  0  0  0  0  0
   12.1460   -7.3740   11.9460 O   0  0  0  0  0  0  0  0  0  0  0  0
    9.8420   -7.9650   13.0260 C   0  0  0  0  0  0  0  0  0  0  0  0
    9.0950   -7.9210   11.7120 C   0  0  0  0  0  0  0  0  0  0  0  0
 14 13  1  0
 13 10  1  0
 11 10  2  0
 12 10  2  0
 10  9  1  0
  9  6  1  0
  6  5  1  0
  5  4  1  0
  7  4  1  0
  8  7  1  0
  9  8  1  0
  4  2  1  0
  2  1  2  0
  3  2  1  0
M  END
$$$$
