A71EV2A-x1145_A_147_1_A71EV2A-x3181+A+202+1__LIG
     RDKit          3D

 14 15  0  0  0  0  0  0  0  0999 V2000
   33.1530   22.7940   18.8770 F   0  0  0  0  0  0  0  0  0  0  0  0
   31.9270   22.2810   19.1710 C   0  0  0  0  0  0  0  0  0  0  0  0
   31.6790   20.9660   18.8840 C   0  0  0  0  0  0  0  0  0  0  0  0
   30.4030   20.4770   19.1070 C   0  0  0  0  0  0  0  0  0  0  0  0
   29.3910   21.2960   19.5880 C   0  0  0  0  0  0  0  0  0  0  0  0
   29.7060   22.6160   19.8910 C   0  0  0  0  0  0  0  0  0  0  0  0
   30.9810   23.1160   19.6890 C   0  0  0  0  0  0  0  0  0  0  0  0
   27.9560   20.8200   19.5800 C   0  0  0  0  0  0  0  0  0  0  0  0
   27.2310   20.7350   20.9290 C   0  0  1  0  0  0  0  0  0  0  0  0
   27.0520   22.1230   21.5440 C   0  0  0  0  0  0  0  0  0  0  0  0
   26.1380   22.1680   22.6870 N   0  0  0  0  0  0  0  0  0  0  0  0
   24.8160   21.6840   22.3340 C   0  0  0  0  0  0  0  0  0  0  0  0
   24.9480   20.2490   21.9850 C   0  0  0  0  0  0  0  0  0  0  0  0
   25.8560   20.0760   20.7710 C   0  0  0  0  0  0  0  0  0  0  0  0
  2  1  1  0
  2  7  2  0
  7  6  1  0
  6  5  2  0
  8  5  1  0
  9  8  1  6
  9 14  1  0
 14 13  1  0
 13 12  1  0
 12 11  1  0
 11 10  1  0
 10  9  1  0
  5  4  1  0
  4  3  2  0
  3  2  1  0
M  END
$$$$
