A71EV2A-x0469_A_147_1_A71EV2A-x0525+A+246+1__LIG
     RDKit          3D

 15 16  0  0  0  0  0  0  0  0999 V2000
   11.4190   23.2470   24.3600 C   0  0  0  0  0  0  0  0  0  0  0  0
   11.8540   22.6290   25.6760 C   0  0  0  0  0  0  0  0  0  0  0  0
   12.9680   21.6190   25.4490 C   0  0  0  0  0  0  0  0  0  0  0  0
   10.7120   22.0810   26.4410 N   0  0  0  0  0  0  0  0  0  0  0  0
   11.0720   21.3410   27.6620 C   0  0  0  0  0  0  0  0  0  0  0  0
   10.1110   21.6140   28.8110 C   0  0  0  0  0  0  0  0  0  0  0  0
    8.7190   21.4570   28.3770 N   0  0  0  0  0  0  0  0  0  0  0  0
    8.4030   22.3560   27.2620 C   0  0  0  0  0  0  0  0  0  0  0  0
    9.6490   23.0530   26.7400 C   0  0  0  0  0  0  0  0  0  0  0  0
    7.9690   20.3370   28.6300 C   0  0  0  0  0  0  0  0  0  0  0  0
    8.5290   19.3910   29.4080 N   0  0  0  0  0  0  0  0  0  0  0  0
    7.7990   18.2760   29.5700 C   0  0  0  0  0  0  0  0  0  0  0  0
    6.5640   18.0810   28.9920 C   0  0  0  0  0  0  0  0  0  0  0  0
    6.0860   19.1250   28.2340 C   0  0  0  0  0  0  0  0  0  0  0  0
    6.7590   20.2680   28.0380 N   0  0  0  0  0  0  0  0  0  0  0  0
  3  2  1  0
  2  1  1  0
  4  2  1  0
  4  9  1  0
  9  8  1  0
  8  7  1  0
  7  6  1  0
  6  5  1  0
  5  4  1  0
 10  7  1  0
 10 15  2  0
 15 14  1  0
 14 13  2  0
 13 12  1  0
 12 11  2  0
 11 10  1  0
M  END
$$$$
