A71EV2A-x0515_A_147_1_A71EV2A-x3977+A+202+1__LIG
     RDKit          3D

 11 11  0  0  0  0  0  0  0  0999 V2000
   15.9750   -6.7200   17.6350 O   0  0  0  0  0  0  0  0  0  0  0  0
   17.1780   -6.7690   17.6330 C   0  0  0  0  0  0  0  0  0  0  0  0
   17.9100   -6.7490   18.7410 O   0  0  0  0  0  0  0  0  0  0  0  0
   17.8040   -5.5560   19.5560 C   0  0  0  0  0  0  0  0  0  0  0  0
   18.0070   -6.8670   16.4000 C   0  0  0  0  0  0  0  0  0  0  0  0
   17.4960   -7.4640   15.2230 C   0  0  0  0  0  0  0  0  0  0  0  0
   16.2100   -7.9590   15.1360 N   0  0  0  0  0  0  0  0  0  0  0  0
   18.3250   -7.5340   14.1030 C   0  0  0  0  0  0  0  0  0  0  0  0
   19.5730   -7.0500   14.0850 N   0  0  0  0  0  0  0  0  0  0  0  0
   20.0330   -6.4770   15.2060 C   0  0  0  0  0  0  0  0  0  0  0  0
   19.3080   -6.3630   16.3790 C   0  0  0  0  0  0  0  0  0  0  0  0
  4  3  1  0
  3  2  1  0
  2  1  2  0
  5  2  1  0
  5 11  2  0
 11 10  1  0
 10  9  2  0
  9  8  1  0
  8  6  2  0
  6  5  1  0
  7  6  1  0
M  END
$$$$
