A71EV2A-x0202_A_147_1_A71EV2A-x3977+A+202+1__LIG
     RDKit          3D

 13 14  0  0  0  0  0  0  0  0999 V2000
   17.6570   -2.9850   19.5570 O   0  0  0  0  0  0  0  0  0  0  0  0
   17.9410   -1.6700   20.2190 S   0  0  0  0  0  0  0  0  0  0  0  0
   19.2010   -1.1100   19.5960 O   0  0  0  0  0  0  0  0  0  0  0  0
   16.6170   -0.5940   19.9510 N   0  0  0  0  0  0  0  0  0  0  0  0
   18.2720   -1.8890   21.9180 C   0  0  0  0  0  0  0  0  0  0  0  0
   18.6090   -0.9110   22.7690 N   0  0  0  0  0  0  0  0  0  0  0  0
   18.7800   -1.4780   23.9690 C   0  0  0  0  0  0  0  0  0  0  0  0
   18.5490   -2.7970   23.8580 N   0  0  0  0  0  0  0  0  0  0  0  0
   18.2300   -3.0840   22.5860 C   0  0  0  0  0  0  0  0  0  0  0  0
   18.7790    0.4160   22.5960 N   0  0  0  0  0  0  0  0  0  0  0  0
   19.1250    1.2410   23.5980 C   0  0  0  0  0  0  0  0  0  0  0  0
   19.3110    0.7030   24.8530 C   0  0  0  0  0  0  0  0  0  0  0  0
   19.1380   -0.6510   25.0310 C   0  0  0  0  0  0  0  0  0  0  0  0
  4  2  1  0
  3  2  2  0
  2  1  2  0
  5  2  1  0
  5  9  2  0
  9  8  1  0
  8  7  2  0
  7 13  1  0
 13 12  2  0
 12 11  1  0
 11 10  2  0
 10  6  1  0
  6  5  1  0
  7  6  1  0
M  END
$$$$
