A71EV2A-x0556_A_147_1_A71EV2A-x0911+A+147+1__LIG
     RDKit          3D

 14 15  0  0  0  0  0  0  0  0999 V2000
    5.5240   11.7430   26.3370 O   0  0  0  0  0  0  0  0  0  0  0  0
    6.1730   10.7380   26.2980 C   0  0  0  0  0  0  0  0  0  0  0  0
    7.2770   10.6190   25.3570 C   0  0  0  0  0  0  0  0  0  0  0  0
    7.7920   11.6780   24.8170 C   0  0  0  0  0  0  0  0  0  0  0  0
    7.3650   12.8900   25.1850 N   0  0  0  0  0  0  0  0  0  0  0  0
    8.7680   11.2510   23.9760 C   0  0  0  0  0  0  0  0  0  0  0  0
    7.8530    9.4780   24.9550 N   0  0  0  0  0  0  0  0  0  0  0  0
    8.7760    9.9200   24.0870 N   0  0  0  0  0  0  0  0  0  0  0  0
    9.6770    8.9740   23.4490 C   0  0  0  0  0  0  0  0  0  0  0  0
    6.0130    9.7270   27.1510 N   0  0  0  0  0  0  0  0  0  0  0  0
    4.7960    9.6060   27.9500 C   0  0  0  0  0  0  0  0  0  0  0  0
    3.4950    9.1580   27.2110 C   0  0  0  0  0  0  0  0  0  0  0  0
    3.1750    8.5750   28.5780 C   0  0  0  0  0  0  0  0  0  0  0  0
    4.6670    8.4600   28.7970 C   0  0  0  0  0  0  0  0  0  0  0  0
  9  8  1  0
  8  6  1  0
  6  4  2  0
  5  4  1  0
  4  3  1  0
  7  3  2  0
  8  7  1  0
  3  2  1  0
  2  1  2  0
 10  2  1  0
 11 10  1  0
 11 14  1  0
 14 13  1  0
 13 12  1  0
 12 11  1  0
M  END
$$$$
