A71EV2A-x0501_A_152_1_A71EV2A-x0911+A+147+1__LIG
     RDKit          3D

 13 14  0  0  0  0  0  0  0  0999 V2000
   10.0450    8.7240   23.0690 C   0  0  0  0  0  0  0  0  0  0  0  0
    9.9890   10.1390   23.2040 O   0  0  0  0  0  0  0  0  0  0  0  0
    9.1090   10.6840   24.1080 C   0  0  0  0  0  0  0  0  0  0  0  0
    9.1390   12.0800   24.1960 C   0  0  0  0  0  0  0  0  0  0  0  0
    8.2610   12.7220   25.0710 C   0  0  0  0  0  0  0  0  0  0  0  0
    7.3790   11.9900   25.8410 C   0  0  0  0  0  0  0  0  0  0  0  0
    7.3490   10.6160   25.7420 C   0  0  0  0  0  0  0  0  0  0  0  0
    8.2030    9.9580   24.8680 C   0  0  0  0  0  0  0  0  0  0  0  0
   10.0090   12.9020   23.3660 C   0  0  0  0  0  0  0  0  0  0  0  0
   11.3170   12.5380   23.2170 O   0  0  0  0  0  0  0  0  0  0  0  0
   11.8290   13.4830   22.3880 C   0  0  0  0  0  0  0  0  0  0  0  0
   10.8770   14.3620   22.0650 N   0  0  0  0  0  0  0  0  0  0  0  0
    9.7150   13.9730   22.7050 N   0  0  0  0  0  0  0  0  0  0  0  0
  2  1  1  0
  3  2  1  0
  3  8  2  0
  8  7  1  0
  7  6  2  0
  6  5  1  0
  5  4  2  0
  4  3  1  0
  9  4  1  0
  9 13  2  0
 13 12  1  0
 12 11  2  0
 11 10  1  0
 10  9  1  0
M  END
$$$$
